data_image0
_chemical_formula_structural       NbInSe2
_chemical_formula_sum              "Nb1 In1 Se2"
_cell_length_a       3.45262
_cell_length_b       3.45262
_cell_length_c       8.37388
_cell_angle_alpha    90
_cell_angle_beta     90
_cell_angle_gamma    120

_space_group_name_H-M_alt    "P 1"
_space_group_IT_number       1

loop_
  _space_group_symop_operation_xyz
  'x, y, z'

loop_
  _atom_site_type_symbol
  _atom_site_label
  _atom_site_symmetry_multiplicity
  _atom_site_fract_x
  _atom_site_fract_y
  _atom_site_fract_z
  _atom_site_occupancy
  Nb  Nb1       1.0  0.99999  0.99997  0.50000  1.0000
  In  In1       1.0  0.99997  0.99995  0.00000  1.0000
  Se  Se1       1.0  0.33332  0.66664  0.69993  1.0000
  Se  Se2       1.0  0.33332  0.66664  0.30007  1.0000
