data_image0
_chemical_formula_structural       Li2La2Bi4
_chemical_formula_sum              "Li2 La2 Bi4"
_cell_length_a       4.5293
_cell_length_b       4.5293
_cell_length_c       10.6721
_cell_angle_alpha    90
_cell_angle_beta     90
_cell_angle_gamma    90

_space_group_name_H-M_alt    "P 1"
_space_group_IT_number       1

loop_
  _space_group_symop_operation_xyz
  'x, y, z'

loop_
  _atom_site_type_symbol
  _atom_site_label
  _atom_site_symmetry_multiplicity
  _atom_site_fract_x
  _atom_site_fract_y
  _atom_site_fract_z
  _atom_site_occupancy
  Li  Li1       1.0  0.00000  0.00000  0.00000  1.0000
  Li  Li2       1.0  0.50000  0.50000  0.00000  1.0000
  La  La1       1.0  0.00000  0.50000  0.25532  1.0000
  La  La2       1.0  0.50000  0.00000  0.74468  1.0000
  Bi  Bi1       1.0  0.00000  0.50000  0.83853  1.0000
  Bi  Bi2       1.0  0.50000  0.00000  0.16147  1.0000
  Bi  Bi3       1.0  0.00000  0.00000  0.50000  1.0000
  Bi  Bi4       1.0  0.50000  0.50000  0.50000  1.0000
