data_image0
_chemical_formula_structural       ScNi4Sn
_chemical_formula_sum              "Sc1 Ni4 Sn1"
_cell_length_a       4.81288
_cell_length_b       4.81288
_cell_length_c       4.81288
_cell_angle_alpha    60
_cell_angle_beta     60
_cell_angle_gamma    60

_space_group_name_H-M_alt    "P 1"
_space_group_IT_number       1

loop_
  _space_group_symop_operation_xyz
  'x, y, z'

loop_
  _atom_site_type_symbol
  _atom_site_label
  _atom_site_symmetry_multiplicity
  _atom_site_fract_x
  _atom_site_fract_y
  _atom_site_fract_z
  _atom_site_occupancy
  Sc  Sc1       1.0  0.00000  0.00000  0.00000  1.0000
  Ni  Ni1       1.0  0.62497  0.62497  0.62497  1.0000
  Ni  Ni2       1.0  0.12508  0.62497  0.62497  1.0000
  Ni  Ni3       1.0  0.62497  0.12508  0.62497  1.0000
  Ni  Ni4       1.0  0.62497  0.62497  0.12508  1.0000
  Sn  Sn1       1.0  0.25000  0.25000  0.25000  1.0000
