data_image0
_chemical_formula_structural       YAu2
_chemical_formula_sum              "Y1 Au2"
_cell_length_a       3.68111
_cell_length_b       3.68111
_cell_length_c       5.17713
_cell_angle_alpha    110.806
_cell_angle_beta     110.806
_cell_angle_gamma    90.0034

_space_group_name_H-M_alt    "P 1"
_space_group_IT_number       1

loop_
  _space_group_symop_operation_xyz
  'x, y, z'

loop_
  _atom_site_type_symbol
  _atom_site_label
  _atom_site_symmetry_multiplicity
  _atom_site_fract_x
  _atom_site_fract_y
  _atom_site_fract_z
  _atom_site_occupancy
  Y   Y1        1.0  0.00000  0.00000  0.00000  1.0000
  Au  Au1       1.0  0.66615  0.66615  0.33241  1.0000
  Au  Au2       1.0  0.33385  0.33385  0.66759  1.0000
