data_image0
_chemical_formula_structural       NaTiS2
_chemical_formula_sum              "Na1 Ti1 S2"
_cell_length_a       7.01198
_cell_length_b       7.01198
_cell_length_c       7.01198
_cell_angle_alpha    28.7291
_cell_angle_beta     28.7291
_cell_angle_gamma    28.7291

_space_group_name_H-M_alt    "P 1"
_space_group_IT_number       1

loop_
  _space_group_symop_operation_xyz
  'x, y, z'

loop_
  _atom_site_type_symbol
  _atom_site_label
  _atom_site_symmetry_multiplicity
  _atom_site_fract_x
  _atom_site_fract_y
  _atom_site_fract_z
  _atom_site_occupancy
  Na  Na1       1.0  0.50000  0.50000  0.50000  1.0000
  Ti  Ti1       1.0  0.00000  0.00000  0.00000  1.0000
  S   S1        1.0  0.73738  0.73738  0.73738  1.0000
  S   S2        1.0  0.26262  0.26262  0.26262  1.0000
