data_image0
_chemical_formula_structural       Sn4Pd4
_chemical_formula_sum              "Sn4 Pd4"
_cell_length_a       3.91013
_cell_length_b       6.11046
_cell_length_c       6.32317
_cell_angle_alpha    90
_cell_angle_beta     90
_cell_angle_gamma    90

_space_group_name_H-M_alt    "P 1"
_space_group_IT_number       1

loop_
  _space_group_symop_operation_xyz
  'x, y, z'

loop_
  _atom_site_type_symbol
  _atom_site_label
  _atom_site_symmetry_multiplicity
  _atom_site_fract_x
  _atom_site_fract_y
  _atom_site_fract_z
  _atom_site_occupancy
  Sn  Sn1       1.0  0.75000  0.81127  0.40577  1.0000
  Sn  Sn2       1.0  0.25000  0.18873  0.59423  1.0000
  Sn  Sn3       1.0  0.75000  0.31127  0.09423  1.0000
  Sn  Sn4       1.0  0.25000  0.68873  0.90577  1.0000
  Pd  Pd1       1.0  0.75000  0.98868  0.81367  1.0000
  Pd  Pd2       1.0  0.25000  0.01132  0.18633  1.0000
  Pd  Pd3       1.0  0.75000  0.48868  0.68633  1.0000
  Pd  Pd4       1.0  0.25000  0.51132  0.31367  1.0000
