data_image0
_chemical_formula_structural       Sb2
_chemical_formula_sum              "Sb2"
_cell_length_a       4.43121
_cell_length_b       4.43121
_cell_length_c       4.43121
_cell_angle_alpha    58.3123
_cell_angle_beta     58.3123
_cell_angle_gamma    58.3123

_space_group_name_H-M_alt    "P 1"
_space_group_IT_number       1

loop_
  _space_group_symop_operation_xyz
  'x, y, z'

loop_
  _atom_site_type_symbol
  _atom_site_label
  _atom_site_symmetry_multiplicity
  _atom_site_fract_x
  _atom_site_fract_y
  _atom_site_fract_z
  _atom_site_occupancy
  Sb  Sb1       1.0  0.26400  0.26400  0.26400  1.0000
  Sb  Sb2       1.0  0.73600  0.73600  0.73600  1.0000
