data_image0
_chemical_formula_structural       Hf2Zn
_chemical_formula_sum              "Hf2 Zn1"
_cell_length_a       3.19874
_cell_length_b       3.19874
_cell_length_c       6.03135
_cell_angle_alpha    105.376
_cell_angle_beta     105.376
_cell_angle_gamma    90.0052

_space_group_name_H-M_alt    "P 1"
_space_group_IT_number       1

loop_
  _space_group_symop_operation_xyz
  'x, y, z'

loop_
  _atom_site_type_symbol
  _atom_site_label
  _atom_site_symmetry_multiplicity
  _atom_site_fract_x
  _atom_site_fract_y
  _atom_site_fract_z
  _atom_site_occupancy
  Hf  Hf1       1.0  0.65816  0.65816  0.31637  1.0000
  Hf  Hf2       1.0  0.34184  0.34184  0.68363  1.0000
  Zn  Zn1       1.0  0.00000  0.00000  0.00000  1.0000
