data_image0
_chemical_formula_structural       Hf2Cu
_chemical_formula_sum              "Hf2 Cu1"
_cell_length_a       3.13575
_cell_length_b       3.13575
_cell_length_c       5.93597
_cell_angle_alpha    105.323
_cell_angle_beta     105.323
_cell_angle_gamma    89.9769

_space_group_name_H-M_alt    "P 1"
_space_group_IT_number       1

loop_
  _space_group_symop_operation_xyz
  'x, y, z'

loop_
  _atom_site_type_symbol
  _atom_site_label
  _atom_site_symmetry_multiplicity
  _atom_site_fract_x
  _atom_site_fract_y
  _atom_site_fract_z
  _atom_site_occupancy
  Hf  Hf1       1.0  0.34441  0.34441  0.68885  1.0000
  Hf  Hf2       1.0  0.65559  0.65559  0.31115  1.0000
  Cu  Cu1       1.0  0.00000  0.00000  0.00000  1.0000
