data_image0
_chemical_formula_structural       CoTe2
_chemical_formula_sum              "Co1 Te2"
_cell_length_a       3.73357
_cell_length_b       3.7335
_cell_length_c       5.378
_cell_angle_alpha    90
_cell_angle_beta     89.9977
_cell_angle_gamma    119.999

_space_group_name_H-M_alt    "P 1"
_space_group_IT_number       1

loop_
  _space_group_symop_operation_xyz
  'x, y, z'

loop_
  _atom_site_type_symbol
  _atom_site_label
  _atom_site_symmetry_multiplicity
  _atom_site_fract_x
  _atom_site_fract_y
  _atom_site_fract_z
  _atom_site_occupancy
  Co  Co1       1.0  0.00000  0.00000  0.00000  1.0000
  Te  Te1       1.0  0.66668  0.33334  0.75697  1.0000
  Te  Te2       1.0  0.33332  0.66666  0.24303  1.0000
