data_image0
_chemical_formula_structural       K6N2
_chemical_formula_sum              "K6 N2"
_cell_length_a       7.62445
_cell_length_b       7.62445
_cell_length_c       7.04793
_cell_angle_alpha    90
_cell_angle_beta     90
_cell_angle_gamma    120

_space_group_name_H-M_alt    "P 1"
_space_group_IT_number       1

loop_
  _space_group_symop_operation_xyz
  'x, y, z'

loop_
  _atom_site_type_symbol
  _atom_site_label
  _atom_site_symmetry_multiplicity
  _atom_site_fract_x
  _atom_site_fract_y
  _atom_site_fract_z
  _atom_site_occupancy
  K   K1        1.0  0.00000  0.73559  0.75000  1.0000
  K   K2        1.0  0.00000  0.26441  0.25000  1.0000
  K   K3        1.0  0.73559  0.73559  0.25000  1.0000
  K   K4        1.0  0.73559  0.00000  0.75000  1.0000
  K   K5        1.0  0.26441  0.26441  0.75000  1.0000
  K   K6        1.0  0.26441  0.00000  0.25000  1.0000
  N   N1        1.0  0.00000  0.00000  0.50000  1.0000
  N   N2        1.0  0.00000  0.00000  0.00000  1.0000
