data_image0
_chemical_formula_structural       Li2Cd2
_chemical_formula_sum              "Li2 Cd2"
_cell_length_a       4.66518
_cell_length_b       4.66518
_cell_length_c       4.66518
_cell_angle_alpha    60
_cell_angle_beta     60
_cell_angle_gamma    60

_space_group_name_H-M_alt    "P 1"
_space_group_IT_number       1

loop_
  _space_group_symop_operation_xyz
  'x, y, z'

loop_
  _atom_site_type_symbol
  _atom_site_label
  _atom_site_symmetry_multiplicity
  _atom_site_fract_x
  _atom_site_fract_y
  _atom_site_fract_z
  _atom_site_occupancy
  Li  Li1       1.0  0.62500  0.62500  0.62500  1.0000
  Li  Li2       1.0  0.37500  0.37500  0.37500  1.0000
  Cd  Cd1       1.0  0.12500  0.12500  0.12500  1.0000
  Cd  Cd2       1.0  0.87500  0.87500  0.87500  1.0000
