data_image0
_chemical_formula_structural       Ta2Pd2
_chemical_formula_sum              "Ta2 Pd2"
_cell_length_a       3.27868
_cell_length_b       3.27868
_cell_length_c       5.99226
_cell_angle_alpha    90
_cell_angle_beta     90
_cell_angle_gamma    90

_space_group_name_H-M_alt    "P 1"
_space_group_IT_number       1

loop_
  _space_group_symop_operation_xyz
  'x, y, z'

loop_
  _atom_site_type_symbol
  _atom_site_label
  _atom_site_symmetry_multiplicity
  _atom_site_fract_x
  _atom_site_fract_y
  _atom_site_fract_z
  _atom_site_occupancy
  Ta  Ta1       1.0  0.75000  0.75000  0.85507  1.0000
  Ta  Ta2       1.0  0.25000  0.25000  0.14493  1.0000
  Pd  Pd1       1.0  0.75000  0.75000  0.37004  1.0000
  Pd  Pd2       1.0  0.25000  0.25000  0.62996  1.0000
