data_image0
_chemical_formula_structural       GeAs
_chemical_formula_sum              "Ge1 As1"
_cell_length_a       3.73013
_cell_length_b       3.73013
_cell_length_c       3.87756
_cell_angle_alpha    58.9161
_cell_angle_beta     114.032
_cell_angle_gamma    87.7103

_space_group_name_H-M_alt    "P 1"
_space_group_IT_number       1

loop_
  _space_group_symop_operation_xyz
  'x, y, z'

loop_
  _atom_site_type_symbol
  _atom_site_label
  _atom_site_symmetry_multiplicity
  _atom_site_fract_x
  _atom_site_fract_y
  _atom_site_fract_z
  _atom_site_occupancy
  Ge  Ge1       1.0  0.00215  0.93736  0.06479  1.0000
  As  As1       1.0  0.41185  0.47664  0.93521  1.0000
