data_image0
_chemical_formula_structural       CuCl2
_chemical_formula_sum              "Cu1 Cl2"
_cell_length_a       3.2572
_cell_length_b       3.78935
_cell_length_c       5.88829
_cell_angle_alpha    85.5836
_cell_angle_beta     73.9447
_cell_angle_gamma    64.5476

_space_group_name_H-M_alt    "P 1"
_space_group_IT_number       1

loop_
  _space_group_symop_operation_xyz
  'x, y, z'

loop_
  _atom_site_type_symbol
  _atom_site_label
  _atom_site_symmetry_multiplicity
  _atom_site_fract_x
  _atom_site_fract_y
  _atom_site_fract_z
  _atom_site_occupancy
  Cu  Cu1       1.0  0.00000  0.00000  0.00000  1.0000
  Cl  Cl1       1.0  0.25719  0.24637  0.23926  1.0000
  Cl  Cl2       1.0  0.74282  0.75363  0.76074  1.0000
