data_image0
_chemical_formula_structural       K2Cd2Sb2
_chemical_formula_sum              "K2 Cd2 Sb2"
_cell_length_a       4.75583
_cell_length_b       4.75583
_cell_length_c       8.22192
_cell_angle_alpha    90
_cell_angle_beta     90
_cell_angle_gamma    90

_space_group_name_H-M_alt    "P 1"
_space_group_IT_number       1

loop_
  _space_group_symop_operation_xyz
  'x, y, z'

loop_
  _atom_site_type_symbol
  _atom_site_label
  _atom_site_symmetry_multiplicity
  _atom_site_fract_x
  _atom_site_fract_y
  _atom_site_fract_z
  _atom_site_occupancy
  K   K1        1.0  0.75000  0.75000  0.34158  1.0000
  K   K2        1.0  0.25000  0.25000  0.65842  1.0000
  Cd  Cd1       1.0  0.75000  0.25000  0.00000  1.0000
  Cd  Cd2       1.0  0.25000  0.75000  0.00000  1.0000
  Sb  Sb1       1.0  0.75000  0.75000  0.78948  1.0000
  Sb  Sb2       1.0  0.25000  0.25000  0.21052  1.0000
