data_image0
_chemical_formula_structural       TaPd2
_chemical_formula_sum              "Ta1 Pd2"
_cell_length_a       2.85297
_cell_length_b       3.82909
_cell_length_c       4.82355
_cell_angle_alpha    113.392
_cell_angle_beta     107.216
_cell_angle_gamma    89.9953

_space_group_name_H-M_alt    "P 1"
_space_group_IT_number       1

loop_
  _space_group_symop_operation_xyz
  'x, y, z'

loop_
  _atom_site_type_symbol
  _atom_site_label
  _atom_site_symmetry_multiplicity
  _atom_site_fract_x
  _atom_site_fract_y
  _atom_site_fract_z
  _atom_site_occupancy
  Ta  Ta1       1.0  0.00000  0.00000  0.00000  1.0000
  Pd  Pd1       1.0  0.33483  0.33487  0.66972  1.0000
  Pd  Pd2       1.0  0.66517  0.66513  0.33028  1.0000
