data_image0
_chemical_formula_structural       Ba2Hg
_chemical_formula_sum              "Ba2 Hg1"
_cell_length_a       4.14384
_cell_length_b       4.14384
_cell_length_c       7.97713
_cell_angle_alpha    105.066
_cell_angle_beta     105.066
_cell_angle_gamma    89.9839

_space_group_name_H-M_alt    "P 1"
_space_group_IT_number       1

loop_
  _space_group_symop_operation_xyz
  'x, y, z'

loop_
  _atom_site_type_symbol
  _atom_site_label
  _atom_site_symmetry_multiplicity
  _atom_site_fract_x
  _atom_site_fract_y
  _atom_site_fract_z
  _atom_site_occupancy
  Ba  Ba1       1.0  0.37081  0.37081  0.74167  1.0000
  Ba  Ba2       1.0  0.62919  0.62919  0.25833  1.0000
  Hg  Hg1       1.0  0.00000  0.00000  0.00000  1.0000
