data_image0
_chemical_formula_structural       Zr2Cd
_chemical_formula_sum              "Zr2 Cd1"
_cell_length_a       3.04265
_cell_length_b       3.04265
_cell_length_c       7.24806
_cell_angle_alpha    102.13
_cell_angle_beta     102.13
_cell_angle_gamma    89.91

_space_group_name_H-M_alt    "P 1"
_space_group_IT_number       1

loop_
  _space_group_symop_operation_xyz
  'x, y, z'

loop_
  _atom_site_type_symbol
  _atom_site_label
  _atom_site_symmetry_multiplicity
  _atom_site_fract_x
  _atom_site_fract_y
  _atom_site_fract_z
  _atom_site_occupancy
  Zr  Zr1       1.0  0.66778  0.66778  0.33586  1.0000
  Zr  Zr2       1.0  0.33222  0.33222  0.66415  1.0000
  Cd  Cd1       1.0  1.00000  1.00000  0.99999  1.0000
