data_image0
_chemical_formula_structural       Li2Cl
_chemical_formula_sum              "Li2 Cl1"
_cell_length_a       3.4337
_cell_length_b       3.43383
_cell_length_c       6.1489
_cell_angle_alpha    73.7842
_cell_angle_beta     73.8093
_cell_angle_gamma    59.9792

_space_group_name_H-M_alt    "P 1"
_space_group_IT_number       1

loop_
  _space_group_symop_operation_xyz
  'x, y, z'

loop_
  _atom_site_type_symbol
  _atom_site_label
  _atom_site_symmetry_multiplicity
  _atom_site_fract_x
  _atom_site_fract_y
  _atom_site_fract_z
  _atom_site_occupancy
  Li  Li1       1.0  0.24665  0.74634  0.75972  1.0000
  Li  Li2       1.0  0.75335  0.25366  0.24028  1.0000
  Cl  Cl1       1.0  0.00000  0.50000  0.50000  1.0000
