data_image0
_chemical_formula_structural       Zr2Ag2
_chemical_formula_sum              "Zr2 Ag2"
_cell_length_a       3.44619
_cell_length_b       3.44619
_cell_length_c       6.52575
_cell_angle_alpha    90
_cell_angle_beta     90
_cell_angle_gamma    90

_space_group_name_H-M_alt    "P 1"
_space_group_IT_number       1

loop_
  _space_group_symop_operation_xyz
  'x, y, z'

loop_
  _atom_site_type_symbol
  _atom_site_label
  _atom_site_symmetry_multiplicity
  _atom_site_fract_x
  _atom_site_fract_y
  _atom_site_fract_z
  _atom_site_occupancy
  Zr  Zr1       1.0  0.25000  0.25000  0.14486  1.0000
  Zr  Zr2       1.0  0.75000  0.75000  0.85514  1.0000
  Ag  Ag1       1.0  0.25000  0.25000  0.61311  1.0000
  Ag  Ag2       1.0  0.75000  0.75000  0.38689  1.0000
