data_image0
_chemical_formula_structural       Zr2S2
_chemical_formula_sum              "Zr2 S2"
_cell_length_a       3.57471
_cell_length_b       3.57471
_cell_length_c       5.44722
_cell_angle_alpha    90
_cell_angle_beta     90
_cell_angle_gamma    90

_space_group_name_H-M_alt    "P 1"
_space_group_IT_number       1

loop_
  _space_group_symop_operation_xyz
  'x, y, z'

loop_
  _atom_site_type_symbol
  _atom_site_label
  _atom_site_symmetry_multiplicity
  _atom_site_fract_x
  _atom_site_fract_y
  _atom_site_fract_z
  _atom_site_occupancy
  Zr  Zr1       1.0  0.75000  0.75000  0.81082  1.0000
  Zr  Zr2       1.0  0.25000  0.25000  0.18918  1.0000
  S   S1        1.0  0.75000  0.75000  0.29949  1.0000
  S   S2        1.0  0.25000  0.25000  0.70051  1.0000
