data_image0
_chemical_formula_structural       ScAg2
_chemical_formula_sum              "Sc1 Ag2"
_cell_length_a       3.50189
_cell_length_b       3.50189
_cell_length_c       5.0504
_cell_angle_alpha    110.287
_cell_angle_beta     110.287
_cell_angle_gamma    89.9993

_space_group_name_H-M_alt    "P 1"
_space_group_IT_number       1

loop_
  _space_group_symop_operation_xyz
  'x, y, z'

loop_
  _atom_site_type_symbol
  _atom_site_label
  _atom_site_symmetry_multiplicity
  _atom_site_fract_x
  _atom_site_fract_y
  _atom_site_fract_z
  _atom_site_occupancy
  Sc  Sc1       1.0  0.00000  0.00000  0.00000  1.0000
  Ag  Ag1       1.0  0.66687  0.66687  0.33375  1.0000
  Ag  Ag2       1.0  0.33313  0.33313  0.66625  1.0000
