data_image0
_chemical_formula_structural       Hf2Al3Ag
_chemical_formula_sum              "Hf2 Al3 Ag1"
_cell_length_a       5.21729
_cell_length_b       5.21729
_cell_length_c       5.21729
_cell_angle_alpha    61.0795
_cell_angle_beta     61.0795
_cell_angle_gamma    61.0795

_space_group_name_H-M_alt    "P 1"
_space_group_IT_number       1

loop_
  _space_group_symop_operation_xyz
  'x, y, z'

loop_
  _atom_site_type_symbol
  _atom_site_label
  _atom_site_symmetry_multiplicity
  _atom_site_fract_x
  _atom_site_fract_y
  _atom_site_fract_z
  _atom_site_occupancy
  Hf  Hf1       1.0  0.62347  0.62347  0.62347  1.0000
  Hf  Hf2       1.0  0.37653  0.37653  0.37653  1.0000
  Al  Al1       1.0  0.00000  0.50000  0.00000  1.0000
  Al  Al2       1.0  0.50000  1.00000  0.00000  1.0000
  Al  Al3       1.0  0.00000  1.00000  0.50000  1.0000
  Ag  Ag1       1.0  0.00000  0.00000  0.00000  1.0000
