data_image0
_chemical_formula_structural       BeIrOs2
_chemical_formula_sum              "Be1 Ir1 Os2"
_cell_length_a       2.74338
_cell_length_b       2.74338
_cell_length_c       6.54928
_cell_angle_alpha    90
_cell_angle_beta     90
_cell_angle_gamma    90

_space_group_name_H-M_alt    "P 1"
_space_group_IT_number       1

loop_
  _space_group_symop_operation_xyz
  'x, y, z'

loop_
  _atom_site_type_symbol
  _atom_site_label
  _atom_site_symmetry_multiplicity
  _atom_site_fract_x
  _atom_site_fract_y
  _atom_site_fract_z
  _atom_site_occupancy
  Be  Be1       1.0  0.00000  0.00000  0.50493  1.0000
  Ir  Ir1       1.0  0.50000  0.50000  0.71177  1.0000
  Os  Os1       1.0  0.00000  0.00000  0.00438  1.0000
  Os  Os2       1.0  0.50000  0.50000  0.27892  1.0000
