data_image0
_chemical_formula_structural       Ti2Cu
_chemical_formula_sum              "Ti2 Cu1"
_cell_length_a       2.89793
_cell_length_b       2.89793
_cell_length_c       5.66716
_cell_angle_alpha    104.811
_cell_angle_beta     104.811
_cell_angle_gamma    90.0093

_space_group_name_H-M_alt    "P 1"
_space_group_IT_number       1

loop_
  _space_group_symop_operation_xyz
  'x, y, z'

loop_
  _atom_site_type_symbol
  _atom_site_label
  _atom_site_symmetry_multiplicity
  _atom_site_fract_x
  _atom_site_fract_y
  _atom_site_fract_z
  _atom_site_occupancy
  Ti  Ti1       1.0  0.66132  0.66132  0.32262  1.0000
  Ti  Ti2       1.0  0.33869  0.33869  0.67738  1.0000
  Cu  Cu1       1.0  0.00000  0.00000  0.00000  1.0000
