data_image0
_chemical_formula_structural       Zr2Ga4
_chemical_formula_sum              "Zr2 Ga4"
_cell_length_a       3.95325
_cell_length_b       4.08493
_cell_length_c       6.69449
_cell_angle_alpha    90
_cell_angle_beta     107.182
_cell_angle_gamma    90

_space_group_name_H-M_alt    "P 1"
_space_group_IT_number       1

loop_
  _space_group_symop_operation_xyz
  'x, y, z'

loop_
  _atom_site_type_symbol
  _atom_site_label
  _atom_site_symmetry_multiplicity
  _atom_site_fract_x
  _atom_site_fract_y
  _atom_site_fract_z
  _atom_site_occupancy
  Zr  Zr1       1.0  0.65032  0.00000  0.30031  1.0000
  Zr  Zr2       1.0  0.34968  0.00000  0.69969  1.0000
  Ga  Ga1       1.0  0.00000  0.00000  0.00000  1.0000
  Ga  Ga2       1.0  0.50000  0.50000  0.00000  1.0000
  Ga  Ga3       1.0  0.82236  0.50000  0.64477  1.0000
  Ga  Ga4       1.0  0.17764  0.50000  0.35523  1.0000
