data_image0
_chemical_formula_structural       ScCo2Sn
_chemical_formula_sum              "Sc1 Co2 Sn1"
_cell_length_a       4.31498
_cell_length_b       4.31498
_cell_length_c       4.31498
_cell_angle_alpha    60
_cell_angle_beta     60
_cell_angle_gamma    60

_space_group_name_H-M_alt    "P 1"
_space_group_IT_number       1

loop_
  _space_group_symop_operation_xyz
  'x, y, z'

loop_
  _atom_site_type_symbol
  _atom_site_label
  _atom_site_symmetry_multiplicity
  _atom_site_fract_x
  _atom_site_fract_y
  _atom_site_fract_z
  _atom_site_occupancy
  Sc  Sc1       1.0  0.50000  0.50000  0.50000  1.0000
  Co  Co1       1.0  0.25000  0.25000  0.25000  1.0000
  Co  Co2       1.0  0.75000  0.75000  0.75000  1.0000
  Sn  Sn1       1.0  0.00000  0.00000  0.00000  1.0000
