data_image0
_chemical_formula_structural       Mg2Rh
_chemical_formula_sum              "Mg2 Rh1"
_cell_length_a       3.16195
_cell_length_b       3.16195
_cell_length_c       5.53192
_cell_angle_alpha    106.627
_cell_angle_beta     106.627
_cell_angle_gamma    90.0052

_space_group_name_H-M_alt    "P 1"
_space_group_IT_number       1

loop_
  _space_group_symop_operation_xyz
  'x, y, z'

loop_
  _atom_site_type_symbol
  _atom_site_label
  _atom_site_symmetry_multiplicity
  _atom_site_fract_x
  _atom_site_fract_y
  _atom_site_fract_z
  _atom_site_occupancy
  Mg  Mg1       1.0  0.64308  0.64308  0.28589  1.0000
  Mg  Mg2       1.0  0.35692  0.35692  0.71411  1.0000
  Rh  Rh1       1.0  0.00000  0.00000  0.00000  1.0000
