data_image0
_chemical_formula_structural       Ti2Ni2
_chemical_formula_sum              "Ti2 Ni2"
_cell_length_a       2.89348
_cell_length_b       3.96048
_cell_length_c       4.8633
_cell_angle_alpha    90
_cell_angle_beta     107.395
_cell_angle_gamma    90

_space_group_name_H-M_alt    "P 1"
_space_group_IT_number       1

loop_
  _space_group_symop_operation_xyz
  'x, y, z'

loop_
  _atom_site_type_symbol
  _atom_site_label
  _atom_site_symmetry_multiplicity
  _atom_site_fract_x
  _atom_site_fract_y
  _atom_site_fract_z
  _atom_site_occupancy
  Ti  Ti1       1.0  0.64327  0.75000  0.78572  1.0000
  Ti  Ti2       1.0  0.35673  0.25000  0.21428  1.0000
  Ni  Ni1       1.0  0.91450  0.75000  0.32978  1.0000
  Ni  Ni2       1.0  0.08550  0.25000  0.67022  1.0000
