data_image0
_chemical_formula_structural       Ti2Zn
_chemical_formula_sum              "Ti2 Zn1"
_cell_length_a       2.97565
_cell_length_b       2.97565
_cell_length_c       5.71197
_cell_angle_alpha    105.097
_cell_angle_beta     105.097
_cell_angle_gamma    90.0031

_space_group_name_H-M_alt    "P 1"
_space_group_IT_number       1

loop_
  _space_group_symop_operation_xyz
  'x, y, z'

loop_
  _atom_site_type_symbol
  _atom_site_label
  _atom_site_symmetry_multiplicity
  _atom_site_fract_x
  _atom_site_fract_y
  _atom_site_fract_z
  _atom_site_occupancy
  Ti  Ti1       1.0  0.66367  0.66367  0.32735  1.0000
  Ti  Ti2       1.0  0.33633  0.33633  0.67265  1.0000
  Zn  Zn1       1.0  0.00000  0.00000  0.00000  1.0000
