data_image0
_chemical_formula_structural       Sc2Ga2
_chemical_formula_sum              "Sc2 Ga2"
_cell_length_a       5.43651
_cell_length_b       5.43651
_cell_length_c       3.84476
_cell_angle_alpha    90
_cell_angle_beta     90
_cell_angle_gamma    137.315

_space_group_name_H-M_alt    "P 1"
_space_group_IT_number       1

loop_
  _space_group_symop_operation_xyz
  'x, y, z'

loop_
  _atom_site_type_symbol
  _atom_site_label
  _atom_site_symmetry_multiplicity
  _atom_site_fract_x
  _atom_site_fract_y
  _atom_site_fract_z
  _atom_site_occupancy
  Sc  Sc1       1.0  0.14007  0.85993  0.25000  1.0000
  Sc  Sc2       1.0  0.85993  0.14007  0.75000  1.0000
  Ga  Ga1       1.0  0.41898  0.58102  0.25000  1.0000
  Ga  Ga2       1.0  0.58102  0.41898  0.75000  1.0000
