data_image0
_chemical_formula_structural       SnP
_chemical_formula_sum              "Sn1 P1"
_cell_length_a       3.82095
_cell_length_b       3.82095
_cell_length_c       4.01299
_cell_angle_alpha    118.429
_cell_angle_beta     118.429
_cell_angle_gamma    90

_space_group_name_H-M_alt    "P 1"
_space_group_IT_number       1

loop_
  _space_group_symop_operation_xyz
  'x, y, z'

loop_
  _atom_site_type_symbol
  _atom_site_label
  _atom_site_symmetry_multiplicity
  _atom_site_fract_x
  _atom_site_fract_y
  _atom_site_fract_z
  _atom_site_occupancy
  Sn  Sn1       1.0  0.99412  0.99412  0.98823  1.0000
  P   P1        1.0  0.43388  0.43388  0.86777  1.0000
