data_image0
_chemical_formula_structural       Sr2N
_chemical_formula_sum              "Sr2 N1"
_cell_length_a       7.2244
_cell_length_b       7.2244
_cell_length_c       7.2244
_cell_angle_alpha    30.4369
_cell_angle_beta     30.4369
_cell_angle_gamma    30.4369

_space_group_name_H-M_alt    "P 1"
_space_group_IT_number       1

loop_
  _space_group_symop_operation_xyz
  'x, y, z'

loop_
  _atom_site_type_symbol
  _atom_site_label
  _atom_site_symmetry_multiplicity
  _atom_site_fract_x
  _atom_site_fract_y
  _atom_site_fract_z
  _atom_site_occupancy
  Sr  Sr1       1.0  0.26738  0.26738  0.26738  1.0000
  Sr  Sr2       1.0  0.73262  0.73262  0.73262  1.0000
  N   N1        1.0  0.00000  0.00000  0.00000  1.0000
