data_image0
_chemical_formula_structural       Na2Si2
_chemical_formula_sum              "Na2 Si2"
_cell_length_a       4.65773
_cell_length_b       3.79744
_cell_length_c       5.82204
_cell_angle_alpha    90
_cell_angle_beta     113.592
_cell_angle_gamma    90

_space_group_name_H-M_alt    "P 1"
_space_group_IT_number       1

loop_
  _space_group_symop_operation_xyz
  'x, y, z'

loop_
  _atom_site_type_symbol
  _atom_site_label
  _atom_site_symmetry_multiplicity
  _atom_site_fract_x
  _atom_site_fract_y
  _atom_site_fract_z
  _atom_site_occupancy
  Na  Na1       1.0  0.64895  0.75000  0.79792  1.0000
  Na  Na2       1.0  0.35105  0.25000  0.20208  1.0000
  Si  Si1       1.0  0.06363  0.25000  0.62716  1.0000
  Si  Si2       1.0  0.93637  0.75000  0.37284  1.0000
