data_image0
_chemical_formula_structural       Mo2Ir2
_chemical_formula_sum              "Mo2 Ir2"
_cell_length_a       2.74825
_cell_length_b       4.4135
_cell_length_c       4.79568
_cell_angle_alpha    90
_cell_angle_beta     90
_cell_angle_gamma    90

_space_group_name_H-M_alt    "P 1"
_space_group_IT_number       1

loop_
  _space_group_symop_operation_xyz
  'x, y, z'

loop_
  _atom_site_type_symbol
  _atom_site_label
  _atom_site_symmetry_multiplicity
  _atom_site_fract_x
  _atom_site_fract_y
  _atom_site_fract_z
  _atom_site_occupancy
  Mo  Mo1       1.0  0.00000  0.25000  0.17066  1.0000
  Mo  Mo2       1.0  0.00000  0.75000  0.82934  1.0000
  Ir  Ir1       1.0  0.50000  0.25000  0.67479  1.0000
  Ir  Ir2       1.0  0.50000  0.75000  0.32521  1.0000
