data_image0
_chemical_formula_structural       AlVNi2
_chemical_formula_sum              "Al1 V1 Ni2"
_cell_length_a       2.64301
_cell_length_b       2.64301
_cell_length_c       6.64408
_cell_angle_alpha    90
_cell_angle_beta     90
_cell_angle_gamma    90

_space_group_name_H-M_alt    "P 1"
_space_group_IT_number       1

loop_
  _space_group_symop_operation_xyz
  'x, y, z'

loop_
  _atom_site_type_symbol
  _atom_site_label
  _atom_site_symmetry_multiplicity
  _atom_site_fract_x
  _atom_site_fract_y
  _atom_site_fract_z
  _atom_site_occupancy
  Al  Al1       1.0  0.00000  0.00000  0.00000  1.0000
  V   V1        1.0  0.00000  0.00000  0.50000  1.0000
  Ni  Ni1       1.0  0.50000  0.50000  0.24064  1.0000
  Ni  Ni2       1.0  0.50000  0.50000  0.75936  1.0000
