data_image0
_chemical_formula_structural       Be2PtRh
_chemical_formula_sum              "Be2 Pt1 Rh1"
_cell_length_a       2.80014
_cell_length_b       2.80014
_cell_length_c       5.58639
_cell_angle_alpha    90
_cell_angle_beta     90
_cell_angle_gamma    90

_space_group_name_H-M_alt    "P 1"
_space_group_IT_number       1

loop_
  _space_group_symop_operation_xyz
  'x, y, z'

loop_
  _atom_site_type_symbol
  _atom_site_label
  _atom_site_symmetry_multiplicity
  _atom_site_fract_x
  _atom_site_fract_y
  _atom_site_fract_z
  _atom_site_occupancy
  Be  Be1       1.0  0.00000  0.00000  0.01630  1.0000
  Be  Be2       1.0  0.50000  0.50000  0.22352  1.0000
  Pt  Pt1       1.0  0.00000  0.00000  0.44845  1.0000
  Rh  Rh1       1.0  0.50000  0.50000  0.81173  1.0000
