data_image0
_chemical_formula_structural       V2Ir2
_chemical_formula_sum              "V2 Ir2"
_cell_length_a       2.77946
_cell_length_b       4.41239
_cell_length_c       4.41239
_cell_angle_alpha    98.2428
_cell_angle_beta     90
_cell_angle_gamma    90

_space_group_name_H-M_alt    "P 1"
_space_group_IT_number       1

loop_
  _space_group_symop_operation_xyz
  'x, y, z'

loop_
  _atom_site_type_symbol
  _atom_site_label
  _atom_site_symmetry_multiplicity
  _atom_site_fract_x
  _atom_site_fract_y
  _atom_site_fract_z
  _atom_site_occupancy
  V   V1        1.0  0.00000  0.70414  0.70414  1.0000
  V   V2        1.0  0.00000  0.29586  0.29586  1.0000
  Ir  Ir1       1.0  0.50000  0.78469  0.21531  1.0000
  Ir  Ir2       1.0  0.50000  0.21531  0.78469  1.0000
