data_image0
_chemical_formula_structural       ZrScBe2
_chemical_formula_sum              "Zr1 Sc1 Be2"
_cell_length_a       3.11227
_cell_length_b       3.11227
_cell_length_c       6.35669
_cell_angle_alpha    90
_cell_angle_beta     90
_cell_angle_gamma    90

_space_group_name_H-M_alt    "P 1"
_space_group_IT_number       1

loop_
  _space_group_symop_operation_xyz
  'x, y, z'

loop_
  _atom_site_type_symbol
  _atom_site_label
  _atom_site_symmetry_multiplicity
  _atom_site_fract_x
  _atom_site_fract_y
  _atom_site_fract_z
  _atom_site_occupancy
  Zr  Zr1       1.0  0.50000  0.50000  0.50000  1.0000
  Sc  Sc1       1.0  0.50000  0.50000  0.00000  1.0000
  Be  Be1       1.0  0.00000  0.00000  0.75429  1.0000
  Be  Be2       1.0  0.00000  0.00000  0.24571  1.0000
