data_image0
_chemical_formula_structural       V4S4
_chemical_formula_sum              "V4 S4"
_cell_length_a       5.7761
_cell_length_b       3.15659
_cell_length_c       5.73054
_cell_angle_alpha    90
_cell_angle_beta     90
_cell_angle_gamma    90

_space_group_name_H-M_alt    "P 1"
_space_group_IT_number       1

loop_
  _space_group_symop_operation_xyz
  'x, y, z'

loop_
  _atom_site_type_symbol
  _atom_site_label
  _atom_site_symmetry_multiplicity
  _atom_site_fract_x
  _atom_site_fract_y
  _atom_site_fract_z
  _atom_site_occupancy
  V   V1        1.0  0.01110  0.25000  0.80323  1.0000
  V   V2        1.0  0.98890  0.75000  0.19677  1.0000
  V   V3        1.0  0.48890  0.75000  0.30323  1.0000
  V   V4        1.0  0.51110  0.25000  0.69677  1.0000
  S   S1        1.0  0.21651  0.25000  0.42442  1.0000
  S   S2        1.0  0.78349  0.75000  0.57558  1.0000
  S   S3        1.0  0.28349  0.75000  0.92442  1.0000
  S   S4        1.0  0.71651  0.25000  0.07558  1.0000
