data_image0
_chemical_formula_structural       Ca2Si2
_chemical_formula_sum              "Ca2 Si2"
_cell_length_a       5.79305
_cell_length_b       5.79305
_cell_length_c       3.87984
_cell_angle_alpha    90
_cell_angle_beta     90
_cell_angle_gamma    134.503

_space_group_name_H-M_alt    "P 1"
_space_group_IT_number       1

loop_
  _space_group_symop_operation_xyz
  'x, y, z'

loop_
  _atom_site_type_symbol
  _atom_site_label
  _atom_site_symmetry_multiplicity
  _atom_site_fract_x
  _atom_site_fract_y
  _atom_site_fract_z
  _atom_site_occupancy
  Ca  Ca1       1.0  0.13944  0.86056  0.25000  1.0000
  Ca  Ca2       1.0  0.86056  0.13944  0.75000  1.0000
  Si  Si1       1.0  0.43036  0.56964  0.25000  1.0000
  Si  Si2       1.0  0.56964  0.43036  0.75000  1.0000
