data_image0
_chemical_formula_structural       LiBeNi
_chemical_formula_sum              "Li1 Be1 Ni1"
_cell_length_a       2.44559
_cell_length_b       2.44559
_cell_length_c       6.00854
_cell_angle_alpha    90
_cell_angle_beta     90
_cell_angle_gamma    120

_space_group_name_H-M_alt    "P 1"
_space_group_IT_number       1

loop_
  _space_group_symop_operation_xyz
  'x, y, z'

loop_
  _atom_site_type_symbol
  _atom_site_label
  _atom_site_symmetry_multiplicity
  _atom_site_fract_x
  _atom_site_fract_y
  _atom_site_fract_z
  _atom_site_occupancy
  Li  Li1       1.0  0.33333  0.66667  0.66145  1.0000
  Be  Be1       1.0  0.00000  0.00000  0.02571  1.0000
  Ni  Ni1       1.0  0.66667  0.33333  0.31285  1.0000
