data_image0
_chemical_formula_structural       Re3N
_chemical_formula_sum              "Re3 N1"
_cell_length_a       2.80606
_cell_length_b       2.80606
_cell_length_c       7.11754
_cell_angle_alpha    90
_cell_angle_beta     90
_cell_angle_gamma    120

_space_group_name_H-M_alt    "P 1"
_space_group_IT_number       1

loop_
  _space_group_symop_operation_xyz
  'x, y, z'

loop_
  _atom_site_type_symbol
  _atom_site_label
  _atom_site_symmetry_multiplicity
  _atom_site_fract_x
  _atom_site_fract_y
  _atom_site_fract_z
  _atom_site_occupancy
  Re  Re1       1.0  0.33333  0.66667  0.19804  1.0000
  Re  Re2       1.0  0.33333  0.66667  0.80196  1.0000
  Re  Re3       1.0  0.66667  0.33333  0.50000  1.0000
  N   N1        1.0  0.66667  0.33334  0.00000  1.0000
