data_image0
_chemical_formula_structural       Be2NiMo
_chemical_formula_sum              "Be2 Ni1 Mo1"
_cell_length_a       2.60149
_cell_length_b       2.60149
_cell_length_c       6.03486
_cell_angle_alpha    90
_cell_angle_beta     90
_cell_angle_gamma    90

_space_group_name_H-M_alt    "P 1"
_space_group_IT_number       1

loop_
  _space_group_symop_operation_xyz
  'x, y, z'

loop_
  _atom_site_type_symbol
  _atom_site_label
  _atom_site_symmetry_multiplicity
  _atom_site_fract_x
  _atom_site_fract_y
  _atom_site_fract_z
  _atom_site_occupancy
  Be  Be1       1.0  0.00000  0.00000  0.00493  1.0000
  Be  Be2       1.0  0.50000  0.50000  0.20170  1.0000
  Ni  Ni1       1.0  0.50000  0.50000  0.80299  1.0000
  Mo  Mo1       1.0  0.00000  0.00000  0.49038  1.0000
