data_image0
_chemical_formula_structural       BeV2Ge
_chemical_formula_sum              "Be1 V2 Ge1"
_cell_length_a       3.10961
_cell_length_b       3.10961
_cell_length_c       5.17122
_cell_angle_alpha    90
_cell_angle_beta     90
_cell_angle_gamma    90

_space_group_name_H-M_alt    "P 1"
_space_group_IT_number       1

loop_
  _space_group_symop_operation_xyz
  'x, y, z'

loop_
  _atom_site_type_symbol
  _atom_site_label
  _atom_site_symmetry_multiplicity
  _atom_site_fract_x
  _atom_site_fract_y
  _atom_site_fract_z
  _atom_site_occupancy
  Be  Be1       1.0  0.00000  0.00000  0.49718  1.0000
  V   V1        1.0  0.00000  0.00000  0.02713  1.0000
  V   V2        1.0  0.50000  0.50000  0.24056  1.0000
  Ge  Ge1       1.0  0.50000  0.50000  0.73512  1.0000
