data_image0
_chemical_formula_structural       TiAl3
_chemical_formula_sum              "Ti1 Al3"
_cell_length_a       2.78595
_cell_length_b       4.66859
_cell_length_c       4.88988
_cell_angle_alpha    90
_cell_angle_beta     90
_cell_angle_gamma    90

_space_group_name_H-M_alt    "P 1"
_space_group_IT_number       1

loop_
  _space_group_symop_operation_xyz
  'x, y, z'

loop_
  _atom_site_type_symbol
  _atom_site_label
  _atom_site_symmetry_multiplicity
  _atom_site_fract_x
  _atom_site_fract_y
  _atom_site_fract_z
  _atom_site_occupancy
  Ti  Ti1       1.0  0.00000  0.50000  0.16334  1.0000
  Al  Al1       1.0  0.50000  0.50000  0.66447  1.0000
  Al  Al2       1.0  0.50000  0.00000  0.33288  1.0000
  Al  Al3       1.0  0.00000  0.00000  0.83932  1.0000
