data_image0
_chemical_formula_structural       CaSi2
_chemical_formula_sum              "Ca1 Si2"
_cell_length_a       5.67928
_cell_length_b       5.67928
_cell_length_c       5.67928
_cell_angle_alpha    39.3808
_cell_angle_beta     39.3807
_cell_angle_gamma    39.3808

_space_group_name_H-M_alt    "P 1"
_space_group_IT_number       1

loop_
  _space_group_symop_operation_xyz
  'x, y, z'

loop_
  _atom_site_type_symbol
  _atom_site_label
  _atom_site_symmetry_multiplicity
  _atom_site_fract_x
  _atom_site_fract_y
  _atom_site_fract_z
  _atom_site_occupancy
  Ca  Ca1       1.0  0.00000  0.00000  0.00000  1.0000
  Si  Si1       1.0  0.80201  0.80201  0.80201  1.0000
  Si  Si2       1.0  0.19799  0.19799  0.19799  1.0000
