data_image0
_chemical_formula_structural       Be2CuNi
_chemical_formula_sum              "Be2 Cu1 Ni1"
_cell_length_a       2.62264
_cell_length_b       2.62264
_cell_length_c       5.29454
_cell_angle_alpha    90
_cell_angle_beta     90
_cell_angle_gamma    90

_space_group_name_H-M_alt    "P 1"
_space_group_IT_number       1

loop_
  _space_group_symop_operation_xyz
  'x, y, z'

loop_
  _atom_site_type_symbol
  _atom_site_label
  _atom_site_symmetry_multiplicity
  _atom_site_fract_x
  _atom_site_fract_y
  _atom_site_fract_z
  _atom_site_occupancy
  Be  Be1       1.0  0.00000  0.00000  0.00306  1.0000
  Be  Be2       1.0  0.50000  0.50000  0.23371  1.0000
  Cu  Cu1       1.0  0.00000  0.00000  0.47565  1.0000
  Ni  Ni1       1.0  0.50000  0.50000  0.78758  1.0000
