data_image0
_chemical_formula_structural       FeCl2
_chemical_formula_sum              "Fe1 Cl2"
_cell_length_a       3.3479
_cell_length_b       3.34785
_cell_length_c       5.80124
_cell_angle_alpha    90.0274
_cell_angle_beta     89.9667
_cell_angle_gamma    119.995

_space_group_name_H-M_alt    "P 1"
_space_group_IT_number       1

loop_
  _space_group_symop_operation_xyz
  'x, y, z'

loop_
  _atom_site_type_symbol
  _atom_site_label
  _atom_site_symmetry_multiplicity
  _atom_site_fract_x
  _atom_site_fract_y
  _atom_site_fract_z
  _atom_site_occupancy
  Fe  Fe1       1.0  0.00000  0.00000  0.00000  1.0000
  Cl  Cl1       1.0  0.66686  0.33325  0.79530  1.0000
  Cl  Cl2       1.0  0.33314  0.66675  0.20470  1.0000
