data_image0
_chemical_formula_structural       LaNiC2
_chemical_formula_sum              "La1 Ni1 C2"
_cell_length_a       3.77401
_cell_length_b       3.77401
_cell_length_c       3.9557
_cell_angle_alpha    90
_cell_angle_beta     90
_cell_angle_gamma    106.257

_space_group_name_H-M_alt    "P 1"
_space_group_IT_number       1

loop_
  _space_group_symop_operation_xyz
  'x, y, z'

loop_
  _atom_site_type_symbol
  _atom_site_label
  _atom_site_symmetry_multiplicity
  _atom_site_fract_x
  _atom_site_fract_y
  _atom_site_fract_z
  _atom_site_occupancy
  La  La1       1.0  0.00047  0.99953  0.00000  1.0000
  Ni  Ni1       1.0  0.61205  0.38795  0.50000  1.0000
  C   C1        1.0  0.45216  0.84968  0.50000  1.0000
  C   C2        1.0  0.15032  0.54784  0.50000  1.0000
