data_image0
_chemical_formula_structural       B2Mo2
_chemical_formula_sum              "B2 Mo2"
_cell_length_a       4.51108
_cell_length_b       4.51108
_cell_length_c       3.07135
_cell_angle_alpha    90
_cell_angle_beta     90
_cell_angle_gamma    139.352

_space_group_name_H-M_alt    "P 1"
_space_group_IT_number       1

loop_
  _space_group_symop_operation_xyz
  'x, y, z'

loop_
  _atom_site_type_symbol
  _atom_site_label
  _atom_site_symmetry_multiplicity
  _atom_site_fract_x
  _atom_site_fract_y
  _atom_site_fract_z
  _atom_site_occupancy
  B   B1        1.0  0.56023  0.43977  0.25000  1.0000
  B   B2        1.0  0.43977  0.56023  0.75000  1.0000
  Mo  Mo1       1.0  0.85535  0.14465  0.25000  1.0000
  Mo  Mo2       1.0  0.14465  0.85535  0.75000  1.0000
