data_image0
_chemical_formula_structural       Zr2Si2S2
_chemical_formula_sum              "Zr2 Si2 S2"
_cell_length_a       3.53096
_cell_length_b       3.53096
_cell_length_c       8.0426
_cell_angle_alpha    90
_cell_angle_beta     90
_cell_angle_gamma    90

_space_group_name_H-M_alt    "P 1"
_space_group_IT_number       1

loop_
  _space_group_symop_operation_xyz
  'x, y, z'

loop_
  _atom_site_type_symbol
  _atom_site_label
  _atom_site_symmetry_multiplicity
  _atom_site_fract_x
  _atom_site_fract_y
  _atom_site_fract_z
  _atom_site_occupancy
  Zr  Zr1       1.0  0.50000  0.00000  0.72884  1.0000
  Zr  Zr2       1.0  0.00000  0.50000  0.27116  1.0000
  Si  Si1       1.0  0.50000  0.50000  0.00000  1.0000
  Si  Si2       1.0  0.00000  0.00000  0.00000  1.0000
  S   S1        1.0  0.00000  0.50000  0.62046  1.0000
  S   S2        1.0  0.50000  0.00000  0.37954  1.0000
