data_image0
_chemical_formula_structural       Ta2B2
_chemical_formula_sum              "Ta2 B2"
_cell_length_a       4.6189
_cell_length_b       4.6189
_cell_length_c       3.14372
_cell_angle_alpha    90
_cell_angle_beta     90
_cell_angle_gamma    138.64

_space_group_name_H-M_alt    "P 1"
_space_group_IT_number       1

loop_
  _space_group_symop_operation_xyz
  'x, y, z'

loop_
  _atom_site_type_symbol
  _atom_site_label
  _atom_site_symmetry_multiplicity
  _atom_site_fract_x
  _atom_site_fract_y
  _atom_site_fract_z
  _atom_site_occupancy
  Ta  Ta1       1.0  0.85444  0.14556  0.75000  1.0000
  Ta  Ta2       1.0  0.14556  0.85444  0.25000  1.0000
  B   B1        1.0  0.56032  0.43968  0.75000  1.0000
  B   B2        1.0  0.43968  0.56032  0.25000  1.0000
