data_image0
_chemical_formula_structural       Al2Ru
_chemical_formula_sum              "Al2 Ru1"
_cell_length_a       3.11766
_cell_length_b       3.11766
_cell_length_c       4.75396
_cell_angle_alpha    109.141
_cell_angle_beta     109.141
_cell_angle_gamma    90

_space_group_name_H-M_alt    "P 1"
_space_group_IT_number       1

loop_
  _space_group_symop_operation_xyz
  'x, y, z'

loop_
  _atom_site_type_symbol
  _atom_site_label
  _atom_site_symmetry_multiplicity
  _atom_site_fract_x
  _atom_site_fract_y
  _atom_site_fract_z
  _atom_site_occupancy
  Al  Al1       1.0  0.65904  0.65904  0.31809  1.0000
  Al  Al2       1.0  0.34096  0.34096  0.68191  1.0000
  Ru  Ru1       1.0  0.00000  0.00000  0.00000  1.0000
