data_image0
_chemical_formula_structural       Ni2B2
_chemical_formula_sum              "Ni2 B2"
_cell_length_a       3.9273
_cell_length_b       3.9273
_cell_length_c       2.97387
_cell_angle_alpha    90
_cell_angle_beta     90
_cell_angle_gamma    136.831

_space_group_name_H-M_alt    "P 1"
_space_group_IT_number       1

loop_
  _space_group_symop_operation_xyz
  'x, y, z'

loop_
  _atom_site_type_symbol
  _atom_site_label
  _atom_site_symmetry_multiplicity
  _atom_site_fract_x
  _atom_site_fract_y
  _atom_site_fract_z
  _atom_site_occupancy
  Ni  Ni1       1.0  0.14687  0.85313  0.75000  1.0000
  Ni  Ni2       1.0  0.85313  0.14687  0.25000  1.0000
  B   B1        1.0  0.43178  0.56822  0.75000  1.0000
  B   B2        1.0  0.56822  0.43178  0.25000  1.0000
