data_image0
_chemical_formula_structural       Nb2B2
_chemical_formula_sum              "Nb2 B2"
_cell_length_a       4.64566
_cell_length_b       4.64566
_cell_length_c       3.15374
_cell_angle_alpha    90
_cell_angle_beta     90
_cell_angle_gamma    138.669

_space_group_name_H-M_alt    "P 1"
_space_group_IT_number       1

loop_
  _space_group_symop_operation_xyz
  'x, y, z'

loop_
  _atom_site_type_symbol
  _atom_site_label
  _atom_site_symmetry_multiplicity
  _atom_site_fract_x
  _atom_site_fract_y
  _atom_site_fract_z
  _atom_site_occupancy
  Nb  Nb1       1.0  0.85455  0.14545  0.75000  1.0000
  Nb  Nb2       1.0  0.14545  0.85455  0.25000  1.0000
  B   B1        1.0  0.55871  0.44129  0.75000  1.0000
  B   B2        1.0  0.44129  0.55871  0.25000  1.0000
