data_image0
_chemical_formula_structural       MnBe2P
_chemical_formula_sum              "Mn1 Be2 P1"
_cell_length_a       2.85259
_cell_length_b       2.85259
_cell_length_c       4.60965
_cell_angle_alpha    90
_cell_angle_beta     90
_cell_angle_gamma    90

_space_group_name_H-M_alt    "P 1"
_space_group_IT_number       1

loop_
  _space_group_symop_operation_xyz
  'x, y, z'

loop_
  _atom_site_type_symbol
  _atom_site_label
  _atom_site_symmetry_multiplicity
  _atom_site_fract_x
  _atom_site_fract_y
  _atom_site_fract_z
  _atom_site_occupancy
  Mn  Mn1       1.0  0.00000  0.00000  0.51273  1.0000
  Be  Be1       1.0  0.00000  0.00000  0.01221  1.0000
  Be  Be2       1.0  0.50000  0.50000  0.23147  1.0000
  P   P1        1.0  0.50000  0.50000  0.74359  1.0000
