data_image0
_chemical_formula_structural       TiB2Mo
_chemical_formula_sum              "Ti1 B2 Mo1"
_cell_length_a       4.39862
_cell_length_b       3.13387
_cell_length_c       3.13387
_cell_angle_alpha    90.1696
_cell_angle_beta     90
_cell_angle_gamma    90

_space_group_name_H-M_alt    "P 1"
_space_group_IT_number       1

loop_
  _space_group_symop_operation_xyz
  'x, y, z'

loop_
  _atom_site_type_symbol
  _atom_site_label
  _atom_site_symmetry_multiplicity
  _atom_site_fract_x
  _atom_site_fract_y
  _atom_site_fract_z
  _atom_site_occupancy
  Ti  Ti1       1.0  0.00000  0.25000  0.25000  1.0000
  B   B1        1.0  0.50000  0.25000  0.25000  1.0000
  B   B2        1.0  0.00000  0.75000  0.75000  1.0000
  Mo  Mo1       1.0  0.50000  0.75000  0.75000  1.0000
