data_image0
_chemical_formula_structural       Li2H
_chemical_formula_sum              "Li2 H1"
_cell_length_a       2.83517
_cell_length_b       2.8347
_cell_length_c       5.21327
_cell_angle_alpha    90.0224
_cell_angle_beta     74.2851
_cell_angle_gamma    59.954

_space_group_name_H-M_alt    "P 1"
_space_group_IT_number       1

loop_
  _space_group_symop_operation_xyz
  'x, y, z'

loop_
  _atom_site_type_symbol
  _atom_site_label
  _atom_site_symmetry_multiplicity
  _atom_site_fract_x
  _atom_site_fract_y
  _atom_site_fract_z
  _atom_site_occupancy
  Li  Li1       1.0  0.99049  0.25482  0.76372  1.0000
  Li  Li2       1.0  0.00951  0.74518  0.23628  1.0000
  H   H1        1.0  0.50000  0.00000  0.00000  1.0000
