data_image0
_chemical_formula_structural       CaB6
_chemical_formula_sum              "Ca1 B6"
_cell_length_a       4.12635
_cell_length_b       4.12635
_cell_length_c       4.12635
_cell_angle_alpha    90
_cell_angle_beta     90
_cell_angle_gamma    90

_space_group_name_H-M_alt    "P 1"
_space_group_IT_number       1

loop_
  _space_group_symop_operation_xyz
  'x, y, z'

loop_
  _atom_site_type_symbol
  _atom_site_label
  _atom_site_symmetry_multiplicity
  _atom_site_fract_x
  _atom_site_fract_y
  _atom_site_fract_z
  _atom_site_occupancy
  Ca  Ca1       1.0  0.00000  0.00000  0.00000  1.0000
  B   B1        1.0  0.20146  0.50000  0.50000  1.0000
  B   B2        1.0  0.50000  0.50000  0.79854  1.0000
  B   B3        1.0  0.50000  0.50000  0.20146  1.0000
  B   B4        1.0  0.50000  0.20146  0.50000  1.0000
  B   B5        1.0  0.50000  0.79854  0.50000  1.0000
  B   B6        1.0  0.79854  0.50000  0.50000  1.0000
