data_image0
_chemical_formula_structural       Li2C2
_chemical_formula_sum              "Li2 C2"
_cell_length_a       3.32239
_cell_length_b       2.5504
_cell_length_c       4.23074
_cell_angle_alpha    90
_cell_angle_beta     113.113
_cell_angle_gamma    90

_space_group_name_H-M_alt    "P 1"
_space_group_IT_number       1

loop_
  _space_group_symop_operation_xyz
  'x, y, z'

loop_
  _atom_site_type_symbol
  _atom_site_label
  _atom_site_symmetry_multiplicity
  _atom_site_fract_x
  _atom_site_fract_y
  _atom_site_fract_z
  _atom_site_occupancy
  Li  Li1       1.0  0.34947  0.75000  0.19907  1.0000
  Li  Li2       1.0  0.65053  0.25000  0.80093  1.0000
  C   C1        1.0  0.04406  0.75000  0.58811  1.0000
  C   C2        1.0  0.95595  0.25000  0.41189  1.0000
