data_image0
_chemical_formula_structural       La2Au2
_chemical_formula_sum              "La2 Au2"
_cell_length_a       3.92828
_cell_length_b       4.76952
_cell_length_c       6.00729
_cell_angle_alpha    90
_cell_angle_beta     71.1183
_cell_angle_gamma    90

_space_group_name_H-M_alt    "P 1"
_space_group_IT_number       1

loop_
  _space_group_symop_operation_xyz
  'x, y, z'

loop_
  _atom_site_type_symbol
  _atom_site_label
  _atom_site_symmetry_multiplicity
  _atom_site_fract_x
  _atom_site_fract_y
  _atom_site_fract_z
  _atom_site_occupancy
  La  La1       1.0  0.13514  0.75000  0.72815  1.0000
  La  La2       1.0  0.86486  0.25000  0.27185  1.0000
  Au  Au1       1.0  0.41454  0.75000  0.17174  1.0000
  Au  Au2       1.0  0.58546  0.25000  0.82826  1.0000
