data_image0
_chemical_formula_structural       Te2Au
_chemical_formula_sum              "Te2 Au1"
_cell_length_a       4.15615
_cell_length_b       4.15614
_cell_length_c       5.09223
_cell_angle_alpha    89.9839
_cell_angle_beta     89.9839
_cell_angle_gamma    60.0093

_space_group_name_H-M_alt    "P 1"
_space_group_IT_number       1

loop_
  _space_group_symop_operation_xyz
  'x, y, z'

loop_
  _atom_site_type_symbol
  _atom_site_label
  _atom_site_symmetry_multiplicity
  _atom_site_fract_x
  _atom_site_fract_y
  _atom_site_fract_z
  _atom_site_occupancy
  Te  Te1       1.0  0.33332  0.33332  0.28872  1.0000
  Te  Te2       1.0  0.66668  0.66668  0.71128  1.0000
  Au  Au1       1.0  0.00000  0.00000  0.00000  1.0000
