data_image0
_chemical_formula_structural       Ca2Ga2
_chemical_formula_sum              "Ca2 Ga2"
_cell_length_a       6.03336
_cell_length_b       6.03336
_cell_length_c       4.36002
_cell_angle_alpha    90
_cell_angle_beta     90
_cell_angle_gamma    141.768

_space_group_name_H-M_alt    "P 1"
_space_group_IT_number       1

loop_
  _space_group_symop_operation_xyz
  'x, y, z'

loop_
  _atom_site_type_symbol
  _atom_site_label
  _atom_site_symmetry_multiplicity
  _atom_site_fract_x
  _atom_site_fract_y
  _atom_site_fract_z
  _atom_site_occupancy
  Ca  Ca1       1.0  0.35230  0.64770  0.75000  1.0000
  Ca  Ca2       1.0  0.64770  0.35230  0.25000  1.0000
  Ga  Ga1       1.0  0.06751  0.93249  0.75000  1.0000
  Ga  Ga2       1.0  0.93249  0.06751  0.25000  1.0000
